%chk=G:\work\fep_hne\22_scan.chk
# apfd/6-311+g(2d,p) geom=connectivity

22

0 1
 C                 -5.33170000   35.95900000   -4.98980000
 N                 -5.65790000   37.06760000   -4.08340000
 C                 -6.09220000   36.87050000   -2.82080000
 N                 -6.05940000   35.64220000   -2.23280000
 C                 -5.37310000   34.63880000   -2.86780000
 C                 -5.03290000   34.73100000   -4.17720000
 C                 -6.46420000   35.77520000   -5.99390000
 C                 -6.31730000   36.17480000   -7.30790000
 C                 -7.36200000   36.06370000   -8.19210000
 C                 -8.58360000   35.55720000   -7.76460000
 C                 -8.71730000   35.12300000   -6.45280000
 C                 -7.66240000   35.23030000   -5.58330000
 C                 -9.70850000   35.50560000   -8.66290000
 N                -10.59620000   35.47120000   -9.37010000
 C                 -4.29490000   33.69830000   -4.86100000
 C                 -6.72700000   35.44180000   -1.00800000
 C                 -7.96910000   34.83600000   -0.98520000
 C                 -8.63250000   34.64010000    0.20440000
 C                 -8.03560000   35.02380000    1.38720000
 C                 -6.79410000   35.61990000    1.37710000
 C                 -6.14860000   35.83980000    0.18330000
 C                -10.02220000   34.02590000    0.20040000
 F                -10.27580000   33.28140000    1.34800000
 F                -10.20500000   33.18940000   -0.89310000
 F                -10.99110000   35.01920000    0.11960000
 C                 -5.03160000   33.45730000   -1.97900000
 O                 -6.53350000   37.82920000   -2.19600000
 H                 -4.31830000   36.26380000   -5.56050000
 H                 -5.60550000   37.89640000   -4.38050000
 H                 -5.44690000   36.55930000   -7.61670000
 H                 -9.58730000   34.74280000   -6.13670000
 H                 -7.76660000   34.92700000   -4.63540000
 H                 -8.39140000   34.54640000   -1.84390000
 H                 -8.51010000   34.87610000    2.25650000
 H                 -6.36550000   35.90000000    2.23760000
 H                 -5.25480000   36.28710000    0.17390000
 H                 -4.33800000   33.83920000   -1.07780000
 H                 -6.02920000   32.97790000   -1.52290000
 H                 -4.44330000   32.61030000   -2.59210000
 N                 -3.71150000   32.88730000   -5.39940000
 H                 -7.25020000   36.36480000   -9.14060000

 1 2 1.0 6 1.0 7 1.0 28 1.0
 2 3 1.0 29 1.0
 3 4 1.0 27 2.0
 4 5 1.0 16 1.0
 5 6 2.0 26 1.0
 6 15 1.0
 7 8 2.0 12 1.0
 8 9 1.0 30 1.0
 9 10 2.0 41 1.0
 10 11 1.0 13 1.0
 11 12 2.0 31 1.0
 12 32 1.0
 13 14 3.0
 14
 15 40 3.0
 16 17 2.0 21 1.0
 17 18 1.0 33 1.0
 18 19 2.0 22 1.0
 19 20 1.0 34 1.0
 20 21 2.0 35 1.0
 21 36 1.0
 22 23 1.0 24 1.0 25 1.0
 23
 24
 25
 26 37 1.0 38 1.0 39 1.0
 27
 28
 29
 30
 31
 32
 33
 34
 35
 36
 37
 38
 39
 40
 41

