%chk=67A-25.chk
# opt(loose,nomicro,modredundant)  external='./ani_calc-2x.sh'  nosymm

Structure: 67A-25; Job: D2-12-13-18 scan at ANI level

0 1
 C                 93.45240000   -7.88640000   14.15730000
 C                 91.92400000   -9.77800000   14.00000000
 C                 92.66200000  -10.27200000   12.89600000
 C                 99.72100000   -7.99800000   12.06300000
 C                 96.28800000   -8.31200000   12.27100000
 C                 92.27400000   -5.43400000   15.36800000
 C                 97.39300000   -7.57500000   11.86900000
 C                 95.16000000   -6.23000000   12.73300000
 C                 97.38100000   -6.16100000   11.88700000
 C                 91.62500000   -5.01000000   14.19900000
 C                 93.88400000   -3.68600000   15.09400000
 C                 92.37500000   -8.50500000   14.61100000
 C                 91.74000000   -7.85800000   15.77200000
 N                 91.74200000   -6.51700000   16.09000000
 N                 94.06500000   -8.38600000   13.12400000
 N                 91.05900000   -6.36300000   17.28500000
 C                 93.73100000   -9.54300000   12.49200000
 C                 91.08700000   -8.51600000   16.76910000
 C                 95.17400000   -7.63700000   12.70700000
 C                 90.67100000   -7.55000000   17.68600000
 O                 98.46700000   -8.29900000   11.45200000
 O                 90.95300000  -10.38900000   14.41500000
 F                100.18300000   -6.79800000   11.50500000
 F                 99.62300000   -7.82500000   13.45000000
 F                100.58600000   -9.05800000   11.77200000
 C                 96.25300000   -5.48300000   12.33100000
 C                 93.40200000   -4.76300000   15.82200000
 C                 92.11800000   -3.92700000   13.47900000
 C                 93.24800000   -3.26700000   13.92900000
 H                 92.40500000  -11.12100000   12.43500000
 H                 96.30200000   -9.31200000   12.24400000
 H                 94.33800000   -5.75700000   13.05100000
 H                 98.18400000   -5.65000000   11.58000000
 H                 90.80600000   -5.48800000   13.88200000
 H                 94.70100000   -3.20300000   15.41100000
 H                 94.28100000   -9.86000000   11.71900000
 H                 90.93500000   -9.50200000   16.83200000
 H                 90.15500000   -7.73500000   18.52200000
 H                 96.23100000   -4.48400000   12.35900000
 H                 93.86000000   -5.05300000   16.66200000
 H                 91.65900000   -3.62700000   12.64200000
 H                 93.60800000   -2.48800000   13.41600000
 H                 93.79630000   -7.08330000   14.61170000

D 2 12 13 18 S 72 5.0

